/*--------------------------------*- C++ -*----------------------------------*\
  =========                 |
  \\      /  F ield         | OpenFOAM: The Open Source CFD Toolbox
   \\    /   O peration     | Website:  https://openfoam.org
    \\  /    A nd           | Version:  13
     \\/     M anipulation  |
\*---------------------------------------------------------------------------*/
FoamFile
{
    format      ascii;
    class       polyBoundaryMesh;
    location    "constant/polyMesh";
    object      boundary;
}
// * * * * * * * * * * * * * * * * * * * * * * * * * * * * * * * * * * * * * //

5
(
    frontWall
    {
        type            empty;
        inGroups        List<word> 1(empty);
        nFaces          11440;
        startFace       22490;
    }
    backWall
    {
        type            empty;
        inGroups        List<word> 1(empty);
        nFaces          11440;
        startFace       33930;
    }
    sideWall
    {
        type            wall;
        inGroups        List<word> 1(wall);
        nFaces          718;
        startFace       45370;
    }
    outlet
    {
        type            patch;
        nFaces          12;
        startFace       46088;
    }
    inlet
    {
        type            patch;
        nFaces          50;
        startFace       46100;
    }
)

// ************************************************************************* //
