/*--------------------------------*- C++ -*----------------------------------*\
  =========                 |
  \\      /  F ield         | OpenFOAM: The Open Source CFD Toolbox
   \\    /   O peration     | Website:  https://openfoam.org
    \\  /    A nd           | Version:  13
     \\/     M anipulation  |
\*---------------------------------------------------------------------------*/

FoamFile
{
    format      ascii;
    class       dictionary;
    object      blockMeshDict;
}
// * * * * * * * * * * * * * * * * * * * * * * * * * * * * * * * * * * * * * //

cell_x1 25;
cell_x2 120;
cell_y1 20;
cell_y2 10;
cell_y3 12;
cell_y4 58;
x1 17;
x2 25;
x3 33;
x4 50;
x5 170;
y1 20;
y2 30;
y3 42;
y4 100;

convertToMeters 0.001;

vertices
(
    (0 0 0)                //0
    (0 ${y1} 0)            //1
    (0 ${y2} 0)            //2
    (0 ${y3} 0)            //3
    (0 ${y4} 0)            //4
    (${x1} 0 0)            //5
    (${x2} ${y1} 0)        //6
    (${x2} ${y2} 0)        //7
    (${x2} ${y3} 0)        //8
    (${x2} ${y4} 0)        //9
    (${x3} 0 0)            //10
    (${x4} 0 0)            //11
    (${x4} ${y1} 0)        //12
    (${x4} ${y2} 0)        //13
    (${x4} ${y3} 0)        //14
    (${x4} ${y4} 0)        //15
    (${x5} ${y2} 0)        //16
    (${x5} ${y3} 0)        //17
    (0 0 1)                //18
    (0 ${y1} 1)            //19
    (0 ${y2} 1)            //20
    (0 ${y3} 1)            //21
    (0 ${y4} 1)            //22
    (${x1} 0 1)            //23
    (${x2} ${y1} 1)        //24
    (${x2} ${y2} 1)        //25
    (${x2} ${y3} 1)        //26
    (${x2} ${y4} 1)        //27
    (${x3} 0 1)            //28
    (${x4} 0 1)            //29
    (${x4} ${y1} 1)        //30
    (${x4} ${y2} 1)        //31
    (${x4} ${y3} 1)        //32
    (${x4} ${y4} 1)        //33
    (${x5} ${y2} 1)        //34
    (${x5} ${y3} 1)        //35
);

blocks
(
    hex (0 5 6 1 18 23 24 19) (${cell_x1} ${cell_y1} 1) simpleGrading (1 1 1)     //1
    hex (1 6 7 2 19 24 25 20) (${cell_x1} ${cell_y2} 1) simpleGrading (1 1 1)     //2
    hex (2 7 8 3 20 25 26 21) (${cell_x1} ${cell_y3} 1) simpleGrading (1 1 1)     //3
    hex (3 8 9 4 21 26 27 22) (${cell_x1} ${cell_y4} 1) simpleGrading (1 1 1)     //4
    hex (10 11 12 6 28 29 30 24) (${cell_x1} ${cell_y1} 1) simpleGrading (1 1 1)  //5
    hex (6 12 13 7 24 30 31 25) (${cell_x1} ${cell_y2} 1) simpleGrading (1 1 1)   //6
    hex (7 13 14 8 25 31 32 26) (${cell_x1} ${cell_y3} 1) simpleGrading (1 1 1)   //7
    hex (8 14 15 9 26 32 33 27) (${cell_x1} ${cell_y4} 1) simpleGrading (1 1 1)   //8 
    hex (13 16 17 14 31 34 35 32) (${cell_x2} ${cell_y3} 1) simpleGrading (1 1 1) //9
);

boundary
(
    frontWall
    {
        type empty;
        faces
        (
            (0 5 6 1)
            (10 11 12 6)
            (1 6 7 2)
            (6 12 13 7)
            (2 7 8 3)
            (7 13 14 8)
            (13 16 17 14)
            (3 8 9 4)
            (8 14 15 9)
        );
    }
    backWall
    {
        type empty;
        faces
        (
            (18 23 24 19)
            (28 29 30 24)
            (19 24 25 20)
            (24 30 31 25)
            (20 25 26 21)
            (25 31 32 26)
            (31 34 35 32)
            (21 26 27 22)
            (26 32 33 27)
        );
    }
    sideWall
    {
        type wall;
        faces
        (
            (0 5 23 18)
            (5 6 24 23)
            (6 10 28 24)
            (10 11 29 28)
            (11 12 30 29)
            (12 13 31 30)
            (14 15 33 32)
            (13 16 34 31)
            (14 17 35 32)
            (0 1 19 18)
            (1 2 20 19)
            (2 3 21 20)
            (3 4 22 21)
        );
    }
    outlet
    {
        type patch;
        faces
        (
            (16 17 35 34)
        );
    }
    inlet
    {
        type patch;
        faces
        (
            (4 9 27 22)
            (9 15 33 27)
        );
    }
);

// ************************************************************************* //

// ************************************************************************* //
